 &time_control
 run_days                  = 0,
 run_hours                 = FCSTH,
 run_minutes               = 0,
 run_seconds               = 0,
 start_year                = SYY,     SYY,     SYY,     SYY,     SYY,
 start_month               = SMM,     SMM,     SMM,     SMM,     SMM,
 start_day                 = SDD,     SDD,     SDD,     SDD,     SDD,
 start_hour                = SHH,     SHH,     SHH,     SHH,     SHH,
 start_minute              = 00,      00,      00,      00,      00,
 start_second              = 00,      00,      00,      00,      00,
 end_year                  = EYY,     EYY,     EYY,     D4YY,    D4YY,
 end_month                 = EMM,     EMM,     EMM,     D4MM,    D4MM,
 end_day                   = EDD,     EDD,     EDD,     D4DD,    D4DD,
 end_hour                  = EHH,     EHH,     EHH,     D4HH,    D4HH,
 end_minute                = 00,      00,      00,      00,      00,
 end_second                = 00,      00,      00,      00,      00,
 interval_seconds          = 10800,
 input_from_file           = .true.,  .true.,  .true.,  .true.,  .true.,
 fine_input_stream         = 0,       0,       0,       0,       0,
 history_interval          = OUTINT,  OUTINT,  OUTINT,  OUTINT,  OUTINT,
 frames_per_outfile        = 1,       1,       1,       1,       1,
 restart                   = .IfRest.,
 restart_interval          = SaveFrq,
 rst_inname                = "r-<domain>-<date>",
 rst_outname               = "r-<domain>-<date>",
 override_restart_timers   = .true.,
 write_hist_at_0h_rst      = .true.,
 auxinput1_inname          = "met_em.d<domain>.<date>",
 io_form_history           = 2,
 io_form_restart           = 102,
 io_form_input             = 2,
 io_form_boundary          = 2,
 auxinput11_interval       = 1,       1,       1,       1,       1,
 auxinput11_end_h          = 99999,   99999,   99999,   99999,   99999,
 debug_level               = 0,
 nwp_diagnostics           = 1,
 /

 &domains
 time_step                 = 45,
 time_step_fract_num       = 0,
 time_step_fract_den       = 1,
 time_step_dfi             = 0,
 max_dom                   = DOM,
 s_we                      = 1,       1,       1,       1,       1,
 e_we                      = 292,     472,     1090,    160,    46,
 s_sn                      = 1,       1,       1,       1,       1,
 e_sn                      = 250,     469,     958,     160,    46,
 s_vert                    = 1,       1,       1,       1,       1,
 e_vert                    = 37,      37,      37,      37,      37,
 dx                        = 18000,   6000,   2000.,  1111.1,  370.4,
 dy                        = 18000,   6000,   2000.,  1111.1,  370.4,
 grid_id                   = 1,       2,       3,       4,       5,
 parent_id                 = 0,       1,       2,       3,       4,
 i_parent_start            = 1,       81,      62,      90,      46,
 j_parent_start            = 1,       46,      104,     72,      46,
 parent_grid_ratio         = 1,       3,       3,       3,       3,
 parent_time_step_ratio    = 1,       3,       3,       3,       3,
 feedback                  = 0,
 smooth_option             = 0,
 num_metgrid_levels        = METL,
 eta_levels                = 1.000000, 0.996200, 0.989737, 0.982460, 0.974381,
                             0.965422, 0.955498, 0.944507, 0.932347, 0.918907,
                             0.904075, 0.887721, 0.869715, 0.849928, 0.828211,
                             0.804436, 0.778472, 0.750192, 0.719474, 0.686214,
                             0.650339, 0.611803, 0.570656, 0.526958, 0.480854,
                             0.432582, 0.382474, 0.330973, 0.278674, 0.226390,
                             0.175086, 0.132183, 0.096211, 0.065616, 0.039773,
                             0.018113, 0.000000,
 force_sfc_in_vinterp      = 1,
 p_top_requested           = 5000,
 interp_type               = 1,
 extrap_type               = 2,
 t_extrap_type             = 2,
 use_levels_below_ground   = .true.,
 use_surface               = .true.,
 lagrange_order            = 1,
 zap_close_levels          = 500,
 lowest_lev_from_sfc       = .false.,
 sfcp_to_sfcp              = .true.,
 adjust_heights            = .true.,
 num_moves                 = 0,
 move_id                   = 2,       2,       2,       2,
 move_interval             = 60,      120,     150,     180,
 move_cd_x                 = 1,       1,       0,       -1,
 move_cd_y                 = 1,       0,       -1,      1,
 vortex_interval           = 15,
 max_vortex_speed          = 40,
 corral_dist               = 8,
 use_adaptive_time_step    = .true.,
 step_to_output_time       = .true.,
 target_cfl                = 1.2,     1.2,     1.2,     1.0,
 target_hcfl               = 0.84,    0.84,    0.84,    0.84,
 max_step_increase_pct     = 5,       51,      51,      51,
 starting_time_step        = 135,     45,      15,      5,
 max_time_step             = 270,     90,      30,      10,
 min_time_step             = 135,     45,      15,      5,
 numtiles                  = 1,
 max_ts_locs               = 110,
 ts_buf_size               = 4,
 use_mm5_ts                = 0,
 xsec_mm5_ts               = 300.,
 /

 &physics
 mp_physics                = 8,       8,       8,       8,       8,
 mp_zero_out               = 2,
 mp_zero_out_thresh        = 1.e-8,
 ra_lw_physics             = 4,       4,       4,       4,       4,
 ra_sw_physics             = 4,       4,       4,       4,       4,
 aer_opt                   = 1,
 radt                      = 30,      10,      3,       3,       0,
 sf_sfclay_physics         = 1,       1,       1,       1,       1,
 sf_surface_physics        = 2,       2,       2,       2,       2,
 sf_urban_physics          = 0,
 bl_pbl_physics            = 1,       1,       1,       1,       1,
 bldt                      = 0,       0,       0,       0,       0,
 cellcount_method          = 0,       0,       0,       0,
 cldtop_adjustment         = 2.,      2.,      2.,      2.,
 cu_physics                = 1,       1,       1,       0,       0,
 cudt                      = 5,       5,       5,       0,       0,
 do_radar_ref              = 1,
 flashrate_factor          = 1.0,     1.0,     1.0,     1.0,
 iccg_method               = 0,       0,       0,       0,
 iccg_prescribed_den       = 1.,
 iccg_prescribed_num       = 0.,
 lightning_dt              = 0.,      0.,      0.,      0.,
 lightning_option          = 1,       1,       1,       1,
 lightning_start_seconds   = 0.,      0.,      0.,      0.,
 maxiens                   = 1,
 maxens                    = 3,
 maxens2                   = 3,
 maxens3                   = 16,
 ensdim                    = 144,
 isfflx                    = 1,
 ifsnow                    = 1,
 icloud                    = 1,
 surface_input_source      = 1,
 num_soil_layers           = 4,
 num_land_cat              = 21,
 num_soil_cat              = 19,
 sst_update                = 0,
 slope_rad                 = 1,       1,       1,       1,
 topo_shading              = 1,       1,       1,       1,
 topo_wind                 = 1,       1,       1,       1,       0,    0,    0,
 shadlen                   = 30000.,
 wlpi_dt                   = 3600,    3600,    900,     900,
 wlpi_use                  = 1,       1,       1,       1,
 wmxdbz_dt                 = 3600,    3600,    900,     900,
 wmxdbz_use                = 1,       1,       1,       1,
 /

 &fdda
 grid_fdda                 = 0,       0,       0,
 gfdda_inname              = "wrffdda_d<domain>",
 gfdda_interval_m          = 180,     180,     180,
 gfdda_end_h               = 24,      24,      24,
 io_form_gfdda             = 2,
 fgdt                      = 0,       0,       0,
 if_no_pbl_nudging_uv      = 1,       1,       1,
 if_no_pbl_nudging_t       = 1,       1,       1,
 if_no_pbl_nudging_q       = 1,       1,       1,
 if_no_pbl_nudging_ph      = 1,       1,       1,
 if_zfac_uv                = 0,       0,       1,
 k_zfac_uv                 = 10,      10,      1,
 if_zfac_t                 = 0,       0,       1,
 k_zfac_t                  = 10,      10,      1,
 if_zfac_q                 = 0,       0,       1,
 k_zfac_q                  = 10,      10,      1,
 guv                       = 0.0005,  0.0005,  0.0005,
 gt                        = 0.0005,  0.0005,  0.0005,
 gq                        = 0.0005,  0.0005,  0.0005,
 gph                       = 0.0005,  0.0005,  0.0005,
 xwavenum                  = 3,
 ywavenum                  = 2,
 if_ramping                = 1,
 dtramp_min                = 60.0,
 obs_nudge_opt             = 1,       1,       1,       1,       1,
 max_obs                   = 600000,  300000,  120000,  10000,
 fdda_start                = 0.,      0.,      0.,      0.,      0.,
 fdda_end                  = 99999.,  99999.,  99999.,  99999.,  99999.,
 obs_nudge_wind            = 1,       1,       1,       1,       1,
 obs_coef_wind             = 6.E-4,   6.E-4,   8.E-4,   8.E-4,   6.E-4,
 obs_nudge_temp            = 1,       1,       1,       1,       1,
 obs_coef_temp             = 6.E-4,   6.E-4,   8.E-4,   8.E-4,   6.E-4,
 obs_nudge_mois            = 1,       1,       1,       1,       1,
 obs_coef_mois             = 6.E-4,   6.E-4,   8.E-4,   8.E-4,   6.E-4,
 obs_rinxy                 = 200,     100,     40,      10,      8,
 obs_rinsig                = 0.1,
 obs_twindo                = 0.8,     0.667,   0.667,   0.4,     0.4,
 obs_npfi                  = 10,
 obs_ionf                  = 2,       2,       2,       2,       2,
 obs_idynin                = 0,
 obs_dtramp                = 40.,
 obs_rinfmx                = 2,       3,       4,       5,
 obs_prt_max               = 10,
 obs_prt_freq              = 10,      10,      10,      10,      10,
 obs_ipf_in4dob            = .true.,
 obs_ipf_errob             = .true.,
 obs_ipf_nudob             = .true.,
 obs_ipf_init              = .true.,
 obs_adjust_ht             = .true.,
 obs_qc_domain             = 1,       2,       2,       2,
 tolerance_p               = 1.5,
 tolerance_q               = 0.4,
 tolerance_t               = 2.5,
 tolerance_u               = 2.5,
 tolerance_p_sound         = 1.5,
 tolerance_q_sound         = 0.4,
 tolerance_t_sound         = 3.5,
 tolerance_u_sound         = 3.5,
 qc_internal               = .true.,
 /

 &dynamics
 w_damping                 = 1,
 diff_opt                  = 2,       2,       2,       2,       2,
 km_opt                    = 4,       4,       4,       4,       4,
 diff_6th_opt              = 2,       2,       2,       2,       2,
 diff_6th_factor           = 0.12,    0.12,    0.12,    0.12,    0.12,
 base_temp                 = 290.,
 c_k                       = 0.15,    0.15,    0.15,    0.25,
 c_s                       = 0.25,    0.25,    0.25,    0.25,
 damp_opt                  = 3,
 zdamp                     = 5000.,   5000.,   5000.,   5000.,   9000.,
 dampcoef                  = 0.15,    0.15,    0.15,    0.15,    0.15,
 khdif                     = 0,       0,       0,       0,       0,
 kvdif                     = 0,       0,       0,       0,       0,
 non_hydrostatic           = .true.,  .true.,  .true.,  .true.,  .true.,
 mix_full_fields           = .true.,  .true.,  .true.,  .true.,  .true.,
 h_mom_adv_order           = 5,
 v_mom_adv_order           = 3,
 h_sca_adv_order           = 5,
 v_sca_adv_order           = 3,
 moist_adv_opt             = 4,       4,       4,       4,       4,
 momentum_adv_opt          = 3,
 scalar_adv_opt            = 4,       4,       4,       4,       4,
 use_baseparam_fr_nml      = .true.,
 gwd_opt                   = 0,
 /

 &bdy_control
 spec_bdy_width            = 5,
 spec_zone                 = 1,
 relax_zone                = 4,
 specified                 = .true.,  .false., .false., .false., .false.,
 nested                    = .false., .true.,  .true.,  .true.,  .true.,
 /

 &grib2
 /

 &namelist_quilt
 nio_tasks_per_group       = 0,
 nio_groups                = 1,
 /
