&time_control
 use_netcdf_classic = .true.
 run_days                  = 0,
 run_hours                 = FCSTH,
 run_minutes               = 0,
 run_seconds               = 0,
 start_year                = SYY,     SYY,     SYY,     SYY,     SYY,
 start_month               = SMM,     SMM,     SMM,     SMM,     SMM,
 start_day                 = SDD,     SDD,     SDD,     SDD,     SDD,
 start_hour                = SHH,     SHH,     SHH,     SHH,     SHH,
 start_minute              = 00,      00,      00,      00,      00,
 start_second              = 00,      00,      00,      00,      00,
 end_year                  = EYY,     EYY,     EYY,     D4YY,    D4YY,
 end_month                 = EMM,     EMM,     EMM,     D4MM,    D4MM,
 end_day                   = EDD,     EDD,     EDD,     D4DD,    D4DD,
 end_hour                  = EHH,     EHH,     EHH,     D4HH,    D4HH,
 end_minute                = 00,      00,      00,      00,      00,
 end_second                = 00,      00,      00,      00,      00,
 interval_seconds          = 10800,
 input_from_file          = .true.,  .true.,  .true.,  .true.,  .true.,
 fine_input_stream        = 0,       0,       0,       0,       0,
 history_interval          = OUTINT,  OUTINT,  OUTINT,  OUTINT,  OUTINT,
 frames_per_outfile       = 1,       1,       1,       1,       1,
 restart                   = .IfRest.,
 restart_interval          = SaveFrq,
 rst_inname               = "r-<domain>-<date>",
 rst_outname              = "r-<domain>-<date>",
 override_restart_timers  = .true.,
 write_hist_at_0h_rst     = .true.,
 auxinput1_inname         = "met_em.d<domain>.<date>",
 io_form_history         = 2,
 io_form_restart         = 102,
 io_form_input           = 2,
 io_form_boundary        = 2,
 debug_level             = 0,
/

&domains
 time_step                 = 45,
 time_step_fract_num       = 0,
 time_step_fract_den       = 1,
 time_step_dfi             = 0,
 max_dom                   = DOM,
 s_we                      = 1,       1,       1,       1,       1,
 e_we                      = 292,     472,     1090,    160,    46,
 s_sn                      = 1,       1,       1,       1,       1,
 e_sn                      = 250,     469,     958,     160,    46,
 s_vert                    = 1,       1,       1,       1,       1,
 e_vert                    = 37,      37,      37,      37,      37,
 dx                        = 18000,   6000,   2000.,  1111.1,  370.4,
 dy                        = 18000,   6000,   2000.,  1111.1,  370.4,
 grid_id                   = 1,       2,       3,       4,       5,
 parent_id                 = 0,       1,       2,       3,       4,
 i_parent_start            = 1,       81,      62,      90,      46,
 j_parent_start            = 1,       46,      104,     72,      46,
 parent_grid_ratio         = 1,       3,       3,       3,       3,
 parent_time_step_ratio    = 1,       3,       3,       3,       3,
 feedback                  = 0,
 smooth_option             = 0,
 num_metgrid_levels        = METL,
 eta_levels                = 1.000000, 0.996200, 0.989737, 0.982460, 0.974381,
                             0.965422, 0.955498, 0.944507, 0.932347, 0.918907,
                             0.904075, 0.887721, 0.869715, 0.849928, 0.828211,
                             0.804436, 0.778472, 0.750192, 0.719474, 0.686214,
                             0.650339, 0.611803, 0.570656, 0.526958, 0.480854,
                             0.432582, 0.382474, 0.330973, 0.278674, 0.226390,
                             0.175086, 0.132183, 0.096211, 0.065616, 0.039773,
                             0.018113, 0.000000,
 p_top_requested           = 5000,
/

&physics
 mp_physics              = 2, 2, 2,
 progn                   = 1, 1, 1,
 ra_lw_physics           = 1, 1, 1,
 ra_sw_physics           = 1, 1, 1,
 radt                    = 30, 30, 30,
 sf_sfclay_physics       = 2, 2, 2,
 sf_surface_physics      = 3, 3, 3,
 bl_pbl_physics          = 2, 2, 2,
 bldt                    = 0, 0, 0,
 cu_physics              = 5, 5, 5,
 cudt                    = 5, 5, 5,
 sf_urban_physics        = 0, 0, 0,
 isfflx                  = 1,
 ifsnow                  = 0,
 icloud                  = 0,
 surface_input_source    = 1,
 num_soil_layers         = 4,
 num_land_cat            = 21,
 num_soil_cat            = 19,
 maxiens                 = 1,
 maxens                  = 3,
 maxens2                 = 3,
 maxens3                 = 16,
 ensdim                  = 144,
 cu_rad_feedback         = .true.,
 cugd_avedx              = 1,
 mp_zero_out             = 2,
 mp_zero_out_thresh      = 1.e-8,
 cu_diag                 = 1,
/

&dynamics
 w_damping               = 1,
 diff_opt                = 1,
 km_opt                  = 4,
 base_temp               = 290.,
 damp_opt                = 3,
 zdamp                   = 5000., 5000., 5000.,
 dampcoef                = 0.2, 0.2, 0.2,
 khdif                   = 0, 0, 0,
 kvdif                   = 0, 0, 0,
 non_hydrostatic         = .true., .true., .true.,
 moist_adv_opt           = 2, 2, 2,
 scalar_adv_opt          = 2, 2, 2,
 chem_adv_opt            = 2, 2, 2,
 tke_adv_opt             = 2, 2, 2,
/

&bdy_control
 spec_bdy_width          = 5,
 spec_zone               = 1,
 relax_zone              = 4,
 specified               = .true., .false., .false.,
 nested                  = .false., .true., .true.,
/

&namelist_quilt
 nio_tasks_per_group       = 0,
 nio_groups                = 1,
/

&chem
 kemit                   = 0,
 chem_opt                = 0, 0, 0,
 bioemdt                 = 0., 0., 0.,
 photdt                  = 0., 0., 0.,
 chemdt                  = 0., 0., 0.,
 io_style_emissions      = 0,
 emiss_inpt_opt          = 0, 0, 0,
 emiss_opt               = 0, 0, 0,
 chem_in_opt             = 0, 0, 0,
 phot_opt                = 0, 0, 0,
 gas_drydep_opt          = 0, 0, 0,
 aer_drydep_opt          = 0, 0, 0,
 bio_emiss_opt           = 0, 0, 0,
 dust_opt                = 0,
 seas_opt                = 0,
 dmsemis_opt             = 0,
 aer_op_opt              = 0,
 opt_pars_out            = 0,
 gas_bc_opt              = 0, 0, 0,
 gas_ic_opt              = 0, 0, 0,
 aer_bc_opt              = 0, 0, 0,
 aer_ic_opt              = 0, 0, 0,
 gaschem_onoff           = 0, 0, 0,
 aerchem_onoff           = 0, 0, 0,
 wetscav_onoff           = 0, 0, 0,
 cldchem_onoff           = 0, 0, 0,
 vertmix_onoff           = 0, 0, 0,
 chem_conv_tr            = 0, 0, 0,
 biomass_burn_opt        = 0, 0, 0,
 plumerisefire_frq       = 0, 0, 0,
 aer_ra_feedback         = 0, 0, 0,
 have_bcs_chem           = .false., .false., .false.,
 chemdiag                = 0,
/

